Circuit: * U:\EE-230\Temperature Indicator.asc

Direct Newton iteration for .op point succeeded.
Semiconductor Device Operating Points:
                        --- Diodes ---
Name:   d§orange     d§green      d§red
Model:      d           d           d
Id:     -7.58e-13    3.65e-02    6.80e-03
Vd:     -7.48e-01    7.48e-01    7.05e-01
Req:     1.00e+12    7.09e-01    3.80e+00
CAP:     0.00e+00    0.00e+00    0.00e+00



Date: Wed Nov 29 14:32:36 2023
Total elapsed time: 0.069 seconds.

tnom = 27
temp = 27
method = trap
totiter = 6
traniter = 0
tranpoints = 0
accept = 0
rejected = 0
matrix size = 16
fillins = 2
solver = Normal
Avg thread counts: 2.0/0.0/2.0/2.0
Matrix Compiler1: 700 bytes object code size
Matrix Compiler2: 1.22 KB object code size
